NOVO24/_AT/Fontes.dss
! ==========================================================
! FONTES — uma por patio de AT energizado
! 
! A malha de 88 kV da BDGD nao e conexa (844 componentes), e as
! subestacoes da transmissora nao tem barra nesta exportacao.
! Por isso cada patio de AT com transformador recebe sua propria
! fonte no ponto de conexao. Onde ha cabeceira de circuito de AT
! (CTAT.PAC_INI) ela e usada; senao, injeta-se no primario do
! transformador, o que e um equivalente explicito.
! 
! MVAsc: da potencia instalada declarada pela ISA quando a
! subestacao e uma ETT conhecida; senao o padrao documentado.
! ==========================================================
! 1726526: 2 trafo(s) em 138 kV, equivalente no primario do trafo, MVAsc=2500 (padrao)
New Circuit.ENEL_SP basekV=138 pu=1.0 phases=3 bus1=segm_10825292 Angle=0 MVAsc3=2500 MVAsc1=2000
! 1726524: 4 trafo(s) em 138 kV, equivalente no primario do trafo, MVAsc=2500 (padrao)
New Vsource.FONTE_1726524_segm_2577981 bus1=segm_2577981635 basekV=138 pu=1.0 phases=3 Angle=0 MVAsc3=2500 MVAsc1=2000
! 1726534: 3 trafo(s) em 138 kV, equivalente no primario do trafo, MVAsc=2500 (padrao)
New Vsource.FONTE_1726534_segm_2710294 bus1=segm_2710294473 basekV=138 pu=1.0 phases=3 Angle=0 MVAsc3=2500 MVAsc1=2000
! 1726539: 2 trafo(s) em 138 kV, equivalente no primario do trafo, MVAsc=2500 (padrao)
New Vsource.FONTE_1726539_segm_1016427 bus1=segm_10164273 basekV=138 pu=1.0 phases=3 Angle=0 MVAsc3=2500 MVAsc1=2000
! 1726525: 1 trafo(s) em 88 kV, equivalente no primario do trafo, MVAsc=2500 (padrao)
New Vsource.FONTE_1726525_segm_1929767 bus1=segm_192976773 basekV=88 pu=1.0 phases=3 Angle=0 MVAsc3=2500 MVAsc1=2000
! 1726537: 2 trafo(s) em 138 kV, equivalente no primario do trafo, MVAsc=2500 (padrao)
New Vsource.FONTE_1726537_segm_1138457 bus1=segm_11384572 basekV=138 pu=1.0 phases=3 Angle=0 MVAsc3=2500 MVAsc1=2000
! 1726535: 2 trafo(s) em 88 kV, equivalente no primario do trafo, MVAsc=2500 (padrao)
New Vsource.FONTE_1726535_segm_1981602 bus1=segm_198160236 basekV=88 pu=1.0 phases=3 Angle=0 MVAsc3=2500 MVAsc1=2000
! 1726520: 4 trafo(s) em 138 kV, equivalente no primario do trafo, MVAsc=2500 (padrao)
New Vsource.FONTE_1726520_barra_at_172 bus1=barra_at_1726520 basekV=138 pu=1.0 phases=3 Angle=0 MVAsc3=2500 MVAsc1=2000
! 1726528: 2 trafo(s) em 138 kV, equivalente no primario do trafo, MVAsc=2500 (padrao)
New Vsource.FONTE_1726528_segm_6290710 bus1=segm_629071088 basekV=138 pu=1.0 phases=3 Angle=0 MVAsc3=2500 MVAsc1=2000
! 1726533: 3 trafo(s) em 88 kV, equivalente no primario do trafo, MVAsc=2500 (padrao)
New Vsource.FONTE_1726533_barra_at_172 bus1=barra_at_1726533 basekV=88 pu=1.0 phases=3 Angle=0 MVAsc3=2500 MVAsc1=2000
! 1726518: 2 trafo(s) em 138 kV, equivalente no primario do trafo, MVAsc=2500 (padrao)
New Vsource.FONTE_1726518_segm_2739174 bus1=segm_2739174221 basekV=138 pu=1.0 phases=3 Angle=0 MVAsc3=2500 MVAsc1=2000
! 1726532: 1 trafo(s) em 138 kV, equivalente no primario do trafo, MVAsc=2500 (padrao)
New Vsource.FONTE_1726532_segm_5088637 bus1=segm_5088637 basekV=138 pu=1.0 phases=3 Angle=0 MVAsc3=2500 MVAsc1=2000
! 1726521: 2 trafo(s) em 88 kV, equivalente no primario do trafo, MVAsc=2500 (padrao)
New Vsource.FONTE_1726521_segm_1080821 bus1=segm_10808216 basekV=88 pu=1.0 phases=3 Angle=0 MVAsc3=2500 MVAsc1=2000
! 1726530: 1 trafo(s) em 88 kV, equivalente no primario do trafo, MVAsc=2500 (padrao)
New Vsource.FONTE_1726530_segm_2662482 bus1=segm_2662482536 basekV=88 pu=1.0 phases=3 Angle=0 MVAsc3=2500 MVAsc1=2000
! 1726527: 2 trafo(s) em 88 kV, equivalente no primario do trafo, MVAsc=2500 (padrao)
New Vsource.FONTE_1726527_segm_2720471 bus1=segm_2720471725 basekV=88 pu=1.0 phases=3 Angle=0 MVAsc3=2500 MVAsc1=2000
! 1726531: 2 trafo(s) em 88 kV, equivalente no primario do trafo, MVAsc=2500 (padrao)
New Vsource.FONTE_1726531_segm_1212629 bus1=segm_12126290 basekV=88 pu=1.0 phases=3 Angle=0 MVAsc3=2500 MVAsc1=2000
! 1726523: 1 trafo(s) em 88 kV, equivalente no primario do trafo, MVAsc=2500 (padrao)
New Vsource.FONTE_1726523_segm_1939001 bus1=segm_193900170 basekV=88 pu=1.0 phases=3 Angle=0 MVAsc3=2500 MVAsc1=2000
! 1726519: 1 trafo(s) em 88 kV, equivalente no primario do trafo, MVAsc=2500 (padrao)
New Vsource.FONTE_1726519_segm_5195945 bus1=segm_5195945 basekV=88 pu=1.0 phases=3 Angle=0 MVAsc3=2500 MVAsc1=2000
! 1726529: 1 trafo(s) em 88 kV, equivalente no primario do trafo, MVAsc=2500 (padrao)
New Vsource.FONTE_1726529_segm_1952396 bus1=segm_195239669 basekV=88 pu=1.0 phases=3 Angle=0 MVAsc3=2500 MVAsc1=2000
! 1726522: 2 trafo(s) em 138 kV, equivalente no primario do trafo, MVAsc=2500 (padrao)
New Vsource.FONTE_1726522_segm_1185146 bus1=segm_11851464 basekV=138 pu=1.0 phases=3 Angle=0 MVAsc3=2500 MVAsc1=2000
! 1726538: 1 trafo(s) em 88 kV, equivalente no primario do trafo, MVAsc=2500 (padrao)
New Vsource.FONTE_1726538_segm_2751219 bus1=segm_2751219485 basekV=88 pu=1.0 phases=3 Angle=0 MVAsc3=2500 MVAsc1=2000
! 1726540: 1 trafo(s) em 138 kV, equivalente no primario do trafo, MVAsc=2500 (padrao)
New Vsource.FONTE_1726540_segm_5144348 bus1=segm_5144348 basekV=138 pu=1.0 phases=3 Angle=0 MVAsc3=2500 MVAsc1=2000
! 1726536: 1 trafo(s) em 138 kV, equivalente no primario do trafo, MVAsc=2500 (padrao)
New Vsource.FONTE_1726536_segm_1199346 bus1=segm_11993466 basekV=138 pu=1.0 phases=3 Angle=0 MVAsc3=2500 MVAsc1=2000
! 1726516: 1 trafo(s) em 88 kV, equivalente no primario do trafo, MVAsc=2500 (padrao)
New Vsource.FONTE_1726516_barra_at_172 bus1=barra_at_1726516 basekV=88 pu=1.0 phases=3 Angle=0 MVAsc3=2500 MVAsc1=2000
